<?xml version="1.0" encoding="UTF-8"?>

<!-- generated on 2025-11-11 11:50:42 by Eclipse SUMO netedit Version 1.20.0
<configuration xmlns:xsi="http://www.w3.org/2001/XMLSchema-instance" xsi:noNamespaceSchemaLocation="http://sumo.dlr.de/xsd/neteditConfiguration.xsd">

    <input>
        <sumo-net-file value="highway.net.xml"/>
    </input>

    <output>
        <output-file value="highway.net.xml"/>
        <output.street-names value="true"/>
    </output>

    <processing>
        <geometry.min-radius.fix.railways value="false"/>
        <geometry.max-grade.fix value="false"/>
        <offset.disable-normalization value="true"/>
        <lefthand value="0"/>
    </processing>

    <junctions>
        <no-turnarounds value="true"/>
        <junctions.corner-detail value="5"/>
        <junctions.limit-turn-speed value="5.50"/>
        <rectangular-lane-cut value="0"/>
    </junctions>

    <pedestrian>
        <walkingareas value="0"/>
    </pedestrian>

</configuration>
-->

<net version="1.20" junctionCornerDetail="5" limitTurnSpeed="5.50" xmlns:xsi="http://www.w3.org/2001/XMLSchema-instance" xsi:noNamespaceSchemaLocation="http://sumo.dlr.de/xsd/net_file.xsd">

    <location netOffset="-335585.44,3733370.30" convBoundary="6694.11,19919.35,9516.94,25002.88" origBoundary="-70.784703,-33.833830,-70.211825,-33.289410" projParameter="+proj=utm +zone=19 +ellps=WGS84 +datum=WGS84 +units=m +no_defs"/>

    <type id="highway.living_street" priority="2" numLanes="1" speed="2.78" disallow="tram rail_urban rail rail_electric rail_fast ship container cable_car subway aircraft wheelchair scooter drone" oneway="0"/>
    <type id="highway.motorway" priority="14" numLanes="2" speed="39.44" allow="private emergency authority army vip passenger hov taxi bus coach delivery truck trailer motorcycle evehicle custom1 custom2" oneway="1"/>
    <type id="highway.motorway_link" priority="9" numLanes="1" speed="22.22" allow="private emergency authority army vip passenger hov taxi bus coach delivery truck trailer motorcycle evehicle custom1 custom2" oneway="1"/>
    <type id="highway.primary" priority="12" numLanes="2" speed="27.78" disallow="tram rail_urban rail rail_electric rail_fast ship container cable_car subway aircraft wheelchair scooter drone" oneway="0"/>
    <type id="highway.primary_link" priority="7" numLanes="1" speed="22.22" disallow="tram rail_urban rail rail_electric rail_fast ship container cable_car subway aircraft wheelchair scooter drone" oneway="0"/>
    <type id="highway.residential" priority="3" numLanes="1" speed="13.89" disallow="tram rail_urban rail rail_electric rail_fast ship container cable_car subway aircraft wheelchair scooter drone" oneway="0"/>
    <type id="highway.secondary" priority="11" numLanes="1" speed="27.78" disallow="tram rail_urban rail rail_electric rail_fast ship container cable_car subway aircraft wheelchair scooter drone" oneway="0"/>
    <type id="highway.secondary_link" priority="6" numLanes="1" speed="22.22" disallow="tram rail_urban rail rail_electric rail_fast ship container cable_car subway aircraft wheelchair scooter drone" oneway="0"/>
    <type id="highway.tertiary" priority="10" numLanes="1" speed="22.22" disallow="tram rail_urban rail rail_electric rail_fast ship container cable_car subway aircraft wheelchair scooter drone" oneway="0"/>

    <edge id=":10177459276_0" function="internal">
        <lane id=":10177459276_0_0" index="0" disallow="tram rail_urban rail rail_electric rail_fast ship container cable_car subway aircraft wheelchair scooter drone" speed="13.89" length="7.93" shape="8483.88,23327.05 8485.26,23325.21 8485.87,23323.71 8486.44,23322.18 8487.70,23320.23"/>
        <lane id=":10177459276_0_1" index="1" disallow="tram rail_urban rail rail_electric rail_fast ship container cable_car subway aircraft wheelchair scooter drone" speed="13.89" length="7.93" shape="8483.88,23327.05 8485.66,23325.52 8487.12,23324.72 8488.53,23323.89 8490.19,23322.24"/>
    </edge>
    <edge id=":10281752556_0" function="internal">
        <lane id=":10281752556_0_0" index="0" disallow="tram rail_urban rail rail_electric rail_fast ship container cable_car subway aircraft wheelchair scooter drone" speed="13.89" length="8.21" shape="9214.55,24148.93 9215.65,24151.08 9216.74,24152.38 9217.83,24153.67 9218.93,24155.82"/>
        <lane id=":10281752556_0_1" index="1" disallow="tram rail_urban rail rail_electric rail_fast ship container cable_car subway aircraft wheelchair scooter drone" speed="13.89" length="8.21" shape="9211.57,24150.08 9212.66,24152.23 9213.75,24153.53 9214.84,24154.83 9215.94,24156.97"/>
        <lane id=":10281752556_0_2" index="2" disallow="tram rail_urban rail rail_electric rail_fast ship container cable_car subway aircraft wheelchair scooter drone" speed="13.89" length="8.21" shape="9211.57,24150.08 9212.20,24152.41 9212.26,24154.10 9212.32,24155.80 9212.95,24158.12"/>
    </edge>
    <edge id=":10838091138_0" function="internal">
        <lane id=":10838091138_0_0" index="0" allow="private emergency authority army vip passenger hov taxi bus coach delivery truck trailer motorcycle evehicle custom1 custom2" speed="22.22" length="8.21" shape="7633.22,20661.21 7631.16,20659.95 7629.56,20659.42 7627.95,20658.88 7625.90,20657.62"/>
        <lane id=":10838091138_0_1" index="1" allow="private emergency authority army vip passenger hov taxi bus coach delivery truck trailer motorcycle evehicle custom1 custom2" speed="22.22" length="8.21" shape="7635.16,20658.67 7633.11,20657.41 7631.50,20656.88 7629.90,20656.34 7627.84,20655.08"/>
        <lane id=":10838091138_0_2" index="2" allow="private emergency authority army vip passenger hov taxi bus coach delivery truck trailer motorcycle evehicle custom1 custom2" speed="22.22" length="8.21" shape="7637.11,20656.13 7635.06,20654.87 7633.45,20654.34 7631.84,20653.80 7629.79,20652.54"/>
        <lane id=":10838091138_0_3" index="3" allow="private emergency authority army vip passenger hov taxi bus coach delivery truck trailer motorcycle evehicle custom1 custom2" speed="22.22" length="8.21" shape="7639.06,20653.59 7637.00,20652.33 7635.40,20651.80 7633.79,20651.26 7631.73,20650.00"/>
    </edge>
    <edge id=":1112410225#0-AddedOffRampNode_0" function="internal">
        <lane id=":1112410225#0-AddedOffRampNode_0_0" index="0" disallow="tram rail_urban rail rail_electric rail_fast ship container cable_car subway aircraft wheelchair scooter drone" speed="13.89" length="8.27" shape="8812.73,23101.01 8814.08,23103.13 8815.66,23104.18 8817.23,23105.22 8818.58,23107.34"/>
        <lane id=":1112410225#0-AddedOffRampNode_0_1" index="1" disallow="tram rail_urban rail rail_electric rail_fast ship container cable_car subway aircraft wheelchair scooter drone" speed="13.89" length="8.27" shape="8812.73,23101.01 8815.59,23108.48"/>
        <lane id=":1112410225#0-AddedOffRampNode_0_2" index="2" disallow="tram rail_urban rail rail_electric rail_fast ship container cable_car subway aircraft wheelchair scooter drone" speed="13.89" length="8.27" shape="8809.75,23102.16 8812.60,23109.63"/>
    </edge>
    <edge id=":1112410235#0-AddedOffRampNode_0" function="internal">
        <lane id=":1112410235#0-AddedOffRampNode_0_0" index="0" disallow="tram rail_urban rail rail_electric rail_fast ship container cable_car subway aircraft wheelchair scooter drone" speed="13.89" length="8.27" shape="8572.45,23223.96 8571.38,23226.23 8571.35,23228.12 8571.31,23230.01 8570.24,23232.29"/>
        <lane id=":1112410235#0-AddedOffRampNode_0_1" index="1" disallow="tram rail_urban rail rail_electric rail_fast ship container cable_car subway aircraft wheelchair scooter drone" speed="13.89" length="8.27" shape="8572.45,23223.96 8567.68,23230.38"/>
        <lane id=":1112410235#0-AddedOffRampNode_0_2" index="2" disallow="tram rail_urban rail rail_electric rail_fast ship container cable_car subway aircraft wheelchair scooter drone" speed="13.89" length="8.27" shape="8569.88,23222.05 8565.11,23228.47"/>
    </edge>
    <edge id=":11278080226_0" function="internal">
        <lane id=":11278080226_0_0" index="0" disallow="pedestrian tram rail_urban rail rail_electric rail_fast ship container cable_car subway aircraft wheelchair scooter drone" speed="13.89" length="0.10" shape="8010.78,21000.40 8010.78,21000.40"/>
        <lane id=":11278080226_0_1" index="1" disallow="pedestrian tram rail_urban rail rail_electric rail_fast ship container cable_car subway aircraft wheelchair scooter drone" speed="13.89" length="0.10" shape="8012.02,21003.36 8012.02,21003.36"/>
    </edge>
    <edge id=":11278080228_0" function="internal">
        <lane id=":11278080228_0_0" index="0" disallow="pedestrian tram rail_urban rail rail_electric rail_fast ship container cable_car subway aircraft wheelchair scooter drone" speed="13.89" length="0.10" shape="8003.02,20996.86 8003.02,20996.86"/>
        <lane id=":11278080228_0_1" index="1" disallow="pedestrian tram rail_urban rail rail_electric rail_fast ship container cable_car subway aircraft wheelchair scooter drone" speed="13.89" length="0.10" shape="8000.08,20998.12 8000.08,20998.12"/>
    </edge>
    <edge id=":11278548806_0" function="internal">
        <lane id=":11278548806_0_0" index="0" allow="private emergency authority army vip passenger hov taxi bus coach delivery truck trailer motorcycle evehicle custom1 custom2" speed="22.22" length="0.10" shape="7835.36,20802.43 7835.36,20802.43"/>
    </edge>
    <edge id=":1159067531_0" function="internal">
        <lane id=":1159067531_0_0" index="0" disallow="tram rail_urban rail rail_electric rail_fast ship container cable_car subway aircraft wheelchair scooter drone" speed="6.55" length="9.00" shape="9313.23,24409.60 9314.40,24411.72 9315.99,24412.97 9318.01,24413.36 9320.46,24412.87"/>
        <lane id=":1159067531_0_1" index="1" disallow="tram rail_urban rail rail_electric rail_fast ship container cable_car subway aircraft wheelchair scooter drone" speed="7.37" length="11.64" shape="9313.23,24409.60 9314.88,24413.03 9316.81,24415.23 9319.02,24416.18 9321.50,24415.90"/>
    </edge>
    <edge id=":1159067531_2" function="internal">
        <lane id=":1159067531_2_0" index="0" disallow="tram rail_urban rail rail_electric rail_fast ship container cable_car subway aircraft wheelchair scooter drone" speed="13.89" length="14.20" shape="9313.23,24409.60 9318.21,24422.89"/>
        <lane id=":1159067531_2_1" index="1" disallow="tram rail_urban rail rail_electric rail_fast ship container cable_car subway aircraft wheelchair scooter drone" speed="13.89" length="14.20" shape="9310.23,24410.72 9315.21,24424.02"/>
    </edge>
    <edge id=":12529691570_0" function="internal">
        <lane id=":12529691570_0_0" index="0" disallow="pedestrian tram rail_urban rail rail_electric rail_fast ship container cable_car subway aircraft wheelchair scooter drone" speed="13.89" length="0.78" shape="9237.71,24209.35 9237.43,24208.61"/>
        <lane id=":12529691570_0_1" index="1" disallow="pedestrian tram rail_urban rail rail_electric rail_fast ship container cable_car subway aircraft wheelchair scooter drone" speed="13.89" length="0.78" shape="9234.71,24210.48 9234.44,24209.75"/>
    </edge>
    <edge id=":12529691571_0" function="internal">
        <lane id=":12529691571_0_0" index="0" disallow="pedestrian tram rail_urban rail rail_electric rail_fast ship container cable_car subway aircraft wheelchair scooter drone" speed="13.89" length="1.49" shape="9232.48,24190.97 9231.94,24189.57"/>
        <lane id=":12529691571_0_1" index="1" disallow="pedestrian tram rail_urban rail rail_electric rail_fast ship container cable_car subway aircraft wheelchair scooter drone" speed="13.89" length="1.49" shape="9229.50,24192.12 9228.96,24190.73"/>
        <lane id=":12529691571_0_2" index="2" disallow="pedestrian tram rail_urban rail rail_electric rail_fast ship container cable_car subway aircraft wheelchair scooter drone" speed="13.89" length="1.49" shape="9226.51,24193.27 9225.97,24191.88"/>
    </edge>
    <edge id=":12529691572_0" function="internal">
        <lane id=":12529691572_0_0" index="0" disallow="pedestrian tram rail_urban rail rail_electric rail_fast ship container cable_car subway aircraft wheelchair scooter drone" speed="13.89" length="1.35" shape="9237.11,24191.93 9235.83,24192.37"/>
        <lane id=":12529691572_0_1" index="1" disallow="pedestrian tram rail_urban rail rail_electric rail_fast ship container cable_car subway aircraft wheelchair scooter drone" speed="13.89" length="1.35" shape="9238.13,24194.96 9236.85,24195.40"/>
    </edge>
    <edge id=":12529691573_0" function="internal">
        <lane id=":12529691573_0_0" index="0" disallow="pedestrian tram rail_urban rail rail_electric rail_fast ship container cable_car subway aircraft wheelchair scooter drone" speed="13.89" length="1.37" shape="9239.64,24203.42 9240.86,24202.92"/>
        <lane id=":12529691573_0_1" index="1" disallow="pedestrian tram rail_urban rail rail_electric rail_fast ship container cable_car subway aircraft wheelchair scooter drone" speed="13.89" length="1.37" shape="9238.42,24200.46 9239.73,24199.92"/>
    </edge>
    <edge id=":12546660241_0" function="internal">
        <lane id=":12546660241_0_0" index="0" disallow="tram rail_urban rail rail_electric rail_fast ship container cable_car subway aircraft wheelchair scooter drone" speed="8.33" length="0.10" shape="8557.52,23088.53 8557.52,23088.53"/>
    </edge>
    <edge id=":12546660241_1" function="internal">
        <lane id=":12546660241_1_0" index="0" disallow="tram rail_urban rail rail_electric rail_fast ship container cable_car subway aircraft wheelchair scooter drone" speed="3.65" length="4.67" shape="8557.52,23088.53 8557.88,23087.13 8558.50,23086.49 8559.39,23086.60 8560.54,23087.47"/>
    </edge>
    <edge id=":12546660241_2" function="internal">
        <lane id=":12546660241_2_0" index="0" disallow="tram rail_urban rail rail_electric rail_fast ship container cable_car subway aircraft wheelchair scooter drone" speed="8.33" length="0.10" shape="8560.54,23087.47 8560.54,23087.47"/>
    </edge>
    <edge id=":12546660241_3" function="internal">
        <lane id=":12546660241_3_0" index="0" disallow="tram rail_urban rail rail_electric rail_fast ship container cable_car subway aircraft wheelchair scooter drone" speed="3.65" length="4.67" shape="8560.54,23087.47 8560.18,23088.87 8559.56,23089.51 8558.67,23089.40 8557.52,23088.53"/>
    </edge>
    <edge id=":146351733_0" function="internal">
        <lane id=":146351733_0_0" index="0" allow="private emergency authority army vip passenger hov taxi bus coach delivery truck trailer motorcycle evehicle custom1 custom2" speed="22.22" length="3.74" shape="8839.76,23282.89 8838.56,23279.35"/>
    </edge>
    <edge id=":146351733_1" function="internal">
        <lane id=":146351733_1_0" index="0" allow="private emergency authority army vip passenger hov taxi bus coach delivery truck trailer motorcycle evehicle custom1 custom2" speed="22.22" length="3.32" shape="8842.75,23281.74 8841.49,23278.44"/>
        <lane id=":146351733_1_1" index="1" allow="private emergency authority army vip passenger hov taxi bus coach delivery truck trailer motorcycle evehicle custom1 custom2" speed="22.22" length="3.32" shape="8845.74,23280.59 8844.55,23277.49"/>
        <lane id=":146351733_1_2" index="2" allow="private emergency authority army vip passenger hov taxi bus coach delivery truck trailer motorcycle evehicle custom1 custom2" speed="22.22" length="3.32" shape="8848.73,23279.45 8847.61,23276.54"/>
    </edge>
    <edge id=":157218909_0" function="internal">
        <lane id=":157218909_0_0" index="0" allow="private emergency authority army vip passenger hov taxi bus coach delivery truck trailer motorcycle evehicle custom1 custom2" speed="25.00" length="0.30" shape="7310.33,20413.80 7310.10,20413.62"/>
        <lane id=":157218909_0_1" index="1" allow="private emergency authority army vip passenger hov taxi bus coach delivery truck trailer motorcycle evehicle custom1 custom2" speed="25.00" length="0.30" shape="7312.28,20411.26 7312.04,20411.08"/>
        <lane id=":157218909_0_2" index="2" allow="private emergency authority army vip passenger hov taxi bus coach delivery truck trailer motorcycle evehicle custom1 custom2" speed="25.00" length="0.30" shape="7314.23,20408.72 7313.98,20408.54"/>
    </edge>
    <edge id=":15725231-AddedOffRampNode_0" function="internal">
        <lane id=":15725231-AddedOffRampNode_0_0" index="0" allow="private emergency authority army vip passenger hov taxi bus coach delivery truck trailer motorcycle evehicle custom1 custom2" speed="22.22" length="8.20" shape="8608.81,22611.48 8610.17,22613.59 8611.75,22614.63 8613.34,22615.66 8614.69,22617.78"/>
        <lane id=":15725231-AddedOffRampNode_0_1" index="1" allow="private emergency authority army vip passenger hov taxi bus coach delivery truck trailer motorcycle evehicle custom1 custom2" speed="22.22" length="8.20" shape="8608.81,22611.48 8611.71,22618.94"/>
        <lane id=":15725231-AddedOffRampNode_0_2" index="2" allow="private emergency authority army vip passenger hov taxi bus coach delivery truck trailer motorcycle evehicle custom1 custom2" speed="22.22" length="8.20" shape="8605.83,22612.64 8608.73,22620.10"/>
        <lane id=":15725231-AddedOffRampNode_0_3" index="3" allow="private emergency authority army vip passenger hov taxi bus coach delivery truck trailer motorcycle evehicle custom1 custom2" speed="22.22" length="8.20" shape="8602.85,22613.81 8605.75,22621.26"/>
    </edge>
    <edge id=":1856659251_0" function="internal">
        <lane id=":1856659251_0_0" index="0" disallow="tram rail_urban rail rail_electric rail_fast ship container cable_car subway aircraft wheelchair scooter drone" speed="13.89" length="0.29" shape="9395.36,24630.85 9395.45,24631.10"/>
        <lane id=":1856659251_0_1" index="1" disallow="tram rail_urban rail rail_electric rail_fast ship container cable_car subway aircraft wheelchair scooter drone" speed="13.89" length="0.29" shape="9392.36,24631.96 9392.47,24632.25"/>
    </edge>
    <edge id=":1881339402_0" function="internal">
        <lane id=":1881339402_0_0" index="0" disallow="tram rail_urban rail rail_electric rail_fast ship container cable_car subway aircraft wheelchair scooter drone" speed="14.10" length="19.29" shape="8674.09,23066.98 8678.80,23067.44 8683.41,23066.87 8687.92,23065.28 8692.33,23062.66"/>
    </edge>
    <edge id=":1881339402_1" function="internal">
        <lane id=":1881339402_1_0" index="0" disallow="tram rail_urban rail rail_electric rail_fast ship container cable_car subway aircraft wheelchair scooter drone" speed="13.89" length="20.03" shape="8676.58,23075.15 8681.03,23071.20 8684.19,23068.58 8687.49,23066.13 8692.33,23062.66"/>
        <lane id=":1881339402_1_1" index="1" disallow="tram rail_urban rail rail_electric rail_fast ship container cable_car subway aircraft wheelchair scooter drone" speed="13.89" length="20.03" shape="8678.59,23077.64 8683.01,23073.71 8686.13,23071.13 8689.38,23068.71 8694.20,23065.26"/>
    </edge>
    <edge id=":1881339403_0" function="internal">
        <lane id=":1881339403_0_0" index="0" disallow="tram rail_urban rail rail_electric rail_fast ship container cable_car subway aircraft wheelchair scooter drone" speed="6.46" length="9.03" shape="8581.55,23317.64 8580.41,23315.43 8578.84,23314.14 8576.85,23313.75 8574.42,23314.27"/>
    </edge>
    <edge id=":1881339403_1" function="internal">
        <lane id=":1881339403_1_0" index="0" disallow="tram rail_urban rail rail_electric rail_fast ship container cable_car subway aircraft wheelchair scooter drone" speed="8.02" length="14.24" shape="8581.55,23317.64 8580.80,23313.79 8581.45,23310.63 8583.49,23308.16 8586.94,23306.37"/>
    </edge>
    <edge id=":1881339403_2" function="internal">
        <lane id=":1881339403_2_0" index="0" disallow="tram rail_urban rail rail_electric rail_fast ship container cable_car subway aircraft wheelchair scooter drone" speed="3.65" length="4.67" shape="8581.55,23317.64 8581.91,23316.24 8582.54,23315.60 8583.42,23315.72 8584.57,23316.59"/>
    </edge>
    <edge id=":1881339403_3" function="internal">
        <lane id=":1881339403_3_0" index="0" disallow="tram rail_urban rail rail_electric rail_fast ship container cable_car subway aircraft wheelchair scooter drone" speed="6.53" length="9.09" shape="8588.00,23309.39 8585.80,23310.53 8584.50,23312.11 8584.09,23314.13 8584.57,23316.59"/>
    </edge>
    <edge id=":1881339403_4" function="internal">
        <lane id=":1881339403_4_0" index="0" disallow="tram rail_urban rail rail_electric rail_fast ship container cable_car subway aircraft wheelchair scooter drone" speed="13.89" length="14.43" shape="8588.00,23309.39 8574.42,23314.27"/>
    </edge>
    <edge id=":1881339403_5" function="internal">
        <lane id=":1881339403_5_0" index="0" disallow="tram rail_urban rail rail_electric rail_fast ship container cable_car subway aircraft wheelchair scooter drone" speed="3.65" length="1.44" shape="8588.00,23309.39 8586.60,23309.03"/>
    </edge>
    <edge id=":1881339403_9" function="internal">
        <lane id=":1881339403_9_0" index="0" disallow="tram rail_urban rail rail_electric rail_fast ship container cable_car subway aircraft wheelchair scooter drone" speed="3.65" length="3.23" shape="8586.60,23309.03 8585.96,23308.41 8586.07,23307.52 8586.94,23306.37"/>
    </edge>
    <edge id=":1881339403_6" function="internal">
        <lane id=":1881339403_6_0" index="0" disallow="tram rail_urban rail rail_electric rail_fast ship container cable_car subway aircraft wheelchair scooter drone" speed="13.89" length="14.49" shape="8573.31,23311.27 8586.94,23306.37"/>
    </edge>
    <edge id=":1881339403_7" function="internal">
        <lane id=":1881339403_7_0" index="0" disallow="tram rail_urban rail rail_electric rail_fast ship container cable_car subway aircraft wheelchair scooter drone" speed="7.97" length="4.15" shape="8573.31,23311.27 8577.14,23310.44 8577.37,23310.49"/>
    </edge>
    <edge id=":1881339403_8" function="internal">
        <lane id=":1881339403_8_0" index="0" disallow="tram rail_urban rail rail_electric rail_fast ship container cable_car subway aircraft wheelchair scooter drone" speed="3.65" length="1.44" shape="8573.31,23311.27 8574.71,23311.60"/>
    </edge>
    <edge id=":1881339403_10" function="internal">
        <lane id=":1881339403_10_0" index="0" disallow="tram rail_urban rail rail_electric rail_fast ship container cable_car subway aircraft wheelchair scooter drone" speed="7.97" length="10.12" shape="8577.37,23310.49 8580.30,23311.06 8582.78,23313.10 8584.57,23316.59"/>
    </edge>
    <edge id=":1881339403_11" function="internal">
        <lane id=":1881339403_11_0" index="0" disallow="tram rail_urban rail rail_electric rail_fast ship container cable_car subway aircraft wheelchair scooter drone" speed="3.65" length="3.23" shape="8574.71,23311.60 8575.37,23312.22 8575.27,23313.10 8574.42,23314.27"/>
    </edge>
    <edge id=":1881339431_0" function="internal">
        <lane id=":1881339431_0_0" index="0" disallow="tram rail_urban rail rail_electric rail_fast ship container cable_car subway aircraft wheelchair scooter drone" speed="10.70" length="12.90" width="7.00" shape="8660.67,23038.50 8659.08,23041.27 8658.23,23044.24 8658.11,23047.42 8658.72,23050.80"/>
    </edge>
    <edge id=":1881339431_1" function="internal">
        <lane id=":1881339431_1_0" index="0" disallow="tram rail_urban rail rail_electric rail_fast ship container cable_car subway aircraft wheelchair scooter drone" speed="13.89" length="13.78" shape="8660.67,23038.50 8652.50,23049.60"/>
    </edge>
    <edge id=":1881339431_2" function="internal">
        <lane id=":1881339431_2_0" index="0" disallow="tram rail_urban rail rail_electric rail_fast ship container cable_car subway aircraft wheelchair scooter drone" speed="3.65" length="1.44" shape="8660.67,23038.50 8659.31,23039.00"/>
    </edge>
    <edge id=":1881339431_5" function="internal">
        <lane id=":1881339431_5_0" index="0" disallow="tram rail_urban rail rail_electric rail_fast ship container cable_car subway aircraft wheelchair scooter drone" speed="3.65" length="3.23" shape="8659.31,23039.00 8658.43,23038.85 8658.02,23038.05 8658.09,23036.61"/>
    </edge>
    <edge id=":1881339431_3" function="internal">
        <lane id=":1881339431_3_0" index="0" disallow="tram rail_urban rail rail_electric rail_fast ship container cable_car subway aircraft wheelchair scooter drone" speed="13.89" length="13.77" shape="8649.92,23047.70 8658.09,23036.61"/>
    </edge>
    <edge id=":1881339431_4" function="internal">
        <lane id=":1881339431_4_0" index="0" disallow="tram rail_urban rail rail_electric rail_fast ship container cable_car subway aircraft wheelchair scooter drone" speed="3.65" length="1.44" shape="8649.92,23047.70 8651.28,23047.21"/>
    </edge>
    <edge id=":1881339431_6" function="internal">
        <lane id=":1881339431_6_0" index="0" disallow="tram rail_urban rail rail_electric rail_fast ship container cable_car subway aircraft wheelchair scooter drone" speed="3.65" length="3.23" shape="8651.28,23047.21 8652.16,23047.36 8652.57,23048.16 8652.50,23049.60"/>
    </edge>
    <edge id=":1939964078_0" function="internal">
        <lane id=":1939964078_0_0" index="0" disallow="pedestrian tram rail_urban rail rail_electric rail_fast ship container cable_car subway aircraft wheelchair scooter drone" speed="15.39" length="8.84" shape="8236.58,21880.95 8231.45,21888.15"/>
    </edge>
    <edge id=":1939964079_0" function="internal">
        <lane id=":1939964079_0_0" index="0" disallow="pedestrian tram rail_urban rail rail_electric rail_fast ship container cable_car subway aircraft wheelchair scooter drone" speed="13.89" length="0.39" shape="8178.01,21560.69 8178.07,21560.85 8178.12,21560.96 8178.15,21561.07 8178.20,21561.24"/>
        <lane id=":1939964079_0_1" index="1" disallow="pedestrian tram rail_urban rail rail_electric rail_fast ship container cable_car subway aircraft wheelchair scooter drone" speed="13.89" length="0.39" shape="8175.06,21561.93 8175.08,21561.99 8175.10,21562.02 8175.11,21562.06 8175.13,21562.12"/>
    </edge>
    <edge id=":1939964119_0" function="internal">
        <lane id=":1939964119_0_0" index="0" disallow="pedestrian tram rail_urban rail rail_electric rail_fast ship container cable_car subway aircraft wheelchair scooter drone" speed="13.89" length="8.19" shape="8184.26,21702.35 8182.79,21700.29 8181.15,21699.32 8179.53,21698.34 8178.09,21696.27"/>
        <lane id=":1939964119_0_1" index="1" disallow="pedestrian tram rail_urban rail rail_electric rail_fast ship container cable_car subway aircraft wheelchair scooter drone" speed="13.89" length="8.19" shape="8184.26,21702.35 8181.03,21695.01"/>
        <lane id=":1939964119_0_2" index="2" disallow="pedestrian tram rail_urban rail rail_electric rail_fast ship container cable_car subway aircraft wheelchair scooter drone" speed="13.89" length="8.19" shape="8187.18,21701.04 8183.97,21693.74"/>
        <lane id=":1939964119_0_3" index="3" disallow="pedestrian tram rail_urban rail rail_electric rail_fast ship container cable_car subway aircraft wheelchair scooter drone" speed="13.89" length="8.19" shape="8190.10,21699.73 8186.91,21692.48"/>
    </edge>
    <edge id=":1939964191_0" function="internal">
        <lane id=":1939964191_0_0" index="0" disallow="pedestrian tram rail_urban rail rail_electric rail_fast ship container cable_car subway aircraft wheelchair scooter drone" speed="11.11" length="15.67" shape="8342.85,21848.34 8339.57,21847.88 8336.56,21848.32 8333.20,21849.46 8328.88,21851.11"/>
        <lane id=":1939964191_0_1" index="1" disallow="pedestrian tram rail_urban rail rail_electric rail_fast ship container cable_car subway aircraft wheelchair scooter drone" speed="11.11" length="15.67" shape="8342.85,21848.34 8339.45,21847.39 8336.15,21846.76 8332.43,21846.86 8327.77,21848.11"/>
        <lane id=":1939964191_0_2" index="2" disallow="pedestrian tram rail_urban rail rail_electric rail_fast ship container cable_car subway aircraft wheelchair scooter drone" speed="11.11" length="15.67" shape="8342.85,21848.34 8339.37,21846.89 8335.85,21845.17 8331.78,21844.23 8326.66,21845.11"/>
    </edge>
    <edge id=":2240773386_0" function="internal">
        <lane id=":2240773386_0_0" index="0" allow="private emergency authority army vip passenger hov taxi bus coach delivery truck trailer motorcycle evehicle custom1 custom2" speed="13.89" length="0.23" shape="7832.97,20818.69 7833.10,20818.89"/>
    </edge>
    <edge id=":2611315328_0" function="internal">
        <lane id=":2611315328_0_0" index="0" disallow="pedestrian tram rail_urban rail rail_electric rail_fast ship container cable_car subway aircraft wheelchair scooter drone" speed="11.11" length="14.91" shape="8053.40,21156.11 8053.65,21152.68 8053.65,21149.50 8053.06,21145.97 8051.54,21141.51"/>
    </edge>
    <edge id=":2611315328_1" function="internal">
        <lane id=":2611315328_1_0" index="0" disallow="tram rail_urban rail rail_electric rail_fast ship container cable_car subway aircraft wheelchair scooter drone" speed="13.89" length="14.67" shape="8058.51,21154.57 8051.54,21141.51"/>
        <lane id=":2611315328_1_1" index="1" disallow="tram rail_urban rail rail_electric rail_fast ship container cable_car subway aircraft wheelchair scooter drone" speed="13.89" length="14.67" shape="8061.36,21153.12 8054.50,21140.30"/>
    </edge>
    <edge id=":2611315347_0" function="internal">
        <lane id=":2611315347_0_0" index="0" disallow="pedestrian tram rail_urban rail rail_electric rail_fast ship container cable_car subway aircraft wheelchair scooter drone" speed="12.50" length="8.03" shape="7834.35,21071.75 7836.73,21071.60 7838.38,21071.47 7839.96,21071.11 7842.18,21070.28"/>
    </edge>
    <edge id=":2611315347_1" function="internal">