<?xml version="1.0" encoding="UTF-8"?>
<configuration>
  <input>
    <net-file value="highway.net.xml"/>
    <route-files value="routes.rou.xml"/>
  </input>
  <time>
    <begin value="0"/>
    <end value="2678199.00"/>
    <step-length value="0.5"/>
  </time>
  <report>
    <no-step-log value="true"/>
    <duration-log.disable value="true"/>
    <tripinfo-output value="tripinfo.xml"/>
  </report>
</configuration>
